LAMMPS (7 Aug 2019)
# LAMPPS initialization script for magnetic alignment.
# Part of "MSPIN" package for magnetic interaction.
# Author: Akhlak Mahmood, Yingling Group, NC State University.

# mspin works only with real units right now
units				real
dimension			3
boundary 			p p p

# how often neighbor lists are built as a simulation runs.
neigh_modify    delay 5 every 1 check yes

# qmag atom style adds a new column to the full style atoms
# to specify the MS atoms and their magnetic charges
atom_style		qmag

# The “off” setting for pairwise interaction is currently required for GPU package pair styles.
newton off

# follow standard AMBER FF calculation
bond_style      harmonic
angle_style     harmonic
dihedral_style  harmonic
pair_style      lj/cut/coul/long 8.0

# Modify the parameters of the currently defined pair style.
pair_modify     mix arithmetic

# Define a K−space solver for LAMMPS to use each timestep to compute long−range
kspace_style    pppm 1e-4

# load the lammps data file
read_data			Bare-Fe3O4-MNP-in-HXN.dat
  orthogonal box = (0 0 0) to (58.3861 58.4719 56.9488)
  reading atoms ...
  17862 atoms
  scanning bonds ...
  scanning angles ...
  scanning dihedrals ...
  reading bonds ...
  18810 bonds
  reading angles ...
  40939 angles
  reading dihedrals ...
  80796 dihedrals

# Do AMBER like calculation
special_bonds   amber

reset_timestep		0
timestep 			1.0

thermo 				50

# minimize for a bit to get a near 0K structure
print				""

print				"		... MINIMIZATION ..."
		... MINIMIZATION ...
print				"================================="
=================================
dump			1	all custom 50 min.lammpstrj id mol type x y z ix iy iz
minimize 			1.0e-6 1.0e-6 500 1000
PPPM initialization ...
  G vector (1/distance) = 0.104969
  grid = 5 5 5
  stencil order = 5
  estimated absolute RMS force accuracy = 0.0339829
  estimated relative force accuracy = 0.000102339
  3d grid and FFT values/proc = 640 50
  update every 1 steps, delay 0 steps, check yes
Step Temp E_pair E_mol TotEng Press
0            0   -5336.7877    104310.91    98974.123    -763.9885
Loop time of 44.3367 on 4 procs for 500 steps with 17862 atoms

Minimization stats:
  Stopping criterion = max force evaluations
  Energy initial, next-to-last, final =
  Force two-norm initial, final = 2895.51 43.1985
  Force max component initial, final = 83.1751 4.53105
  Final line search alpha, max atom move = 0.00678556 0.0307457
  Iterations, force evaluations = 500 1000

undump			1

# Harmonic restraints on the NP core
group 	feo     	molecule 1
1622 atoms in group feo
fix 	restraint 	feo spring/self 10.0

# NVT heating 1
print				""

print				"		... HEATING ..."
		... HEATING ...
print				"================================"
================================
reset_timestep		0
timestep 			1.0

fix		1			all nvt temp 1 300 100
dump			1	all custom 50 heat.lammpstrj id mol type x y z ix iy iz
run		900
PPPM initialization ...
  G vector (1/distance) = 0.104969
  grid = 5 5 5
  stencil order = 5
  estimated absolute RMS force accuracy = 0.0339829
  estimated relative force accuracy = 0.000102339
  3d grid and FFT values/proc = 640 50
Step Temp E_pair E_mol TotEng Press
0            0   -5738.1636    88943.602    83205.438   -2088.2659
Loop time of 28.3709 on 4 procs for 900 steps with 17862 atoms

undump			1
unfix 	1

print				""

print				"	... NVT EQUILIBRATION ..."
	... NVT EQUILIBRATION ...
print				"================================"
================================
reset_timestep		0
timestep 			1.0

fix		1			all nvt temp 300 300 100
dump			1	all custom 50 eq1.lammpstrj id mol type x y z ix iy iz
restart 1000		restart.eq1
run		1000
PPPM initialization ...
  G vector (1/distance) = 0.104969
  grid = 5 5 5
  stencil order = 5
  estimated absolute RMS force accuracy = 0.0339829
  estimated relative force accuracy = 0.000102339
  3d grid and FFT values/proc = 640 50
Step Temp E_pair E_mol TotEng Press
0     16.76076   -5700.3814    89090.656    84282.622   -698.42109
Averages over the last 11 of 21 rows, steps 500 to 1000:
Temp E_pair E_mol TotEng Press
58.7624 -4957.03 90059.7 88231.2 1188.19
Loop time of 35.2166 on 4 procs for 1000 steps with 17862 atoms

undump			1
unfix	1

unfix 	restraint
